<?xml version="1.0" encoding="ISO-8859-1"?>
<!--
 This file was created with FEBio Studio version 1.0.0
-->
<febio_spec version="2.5">
	<Module type="solid"/>
	<Control>
		<time_steps>10</time_steps>
		<step_size>0.1</step_size>
		<max_refs>15</max_refs>
		<max_ups>10</max_ups>
		<diverge_reform>1</diverge_reform>
		<reform_each_time_step>1</reform_each_time_step>
		<dtol>0.001</dtol>
		<etol>0.01</etol>
		<rtol>0</rtol>
		<lstol>0.9</lstol>
		<min_residual>1e-20</min_residual>
		<qnmethod>0</qnmethod>
		<rhoi>0</rhoi>
		<time_stepper>
			<dtmin>0.01</dtmin>
			<dtmax>0.1</dtmax>
			<max_retries>5</max_retries>
			<opt_iter>10</opt_iter>
		</time_stepper>
		<analysis type="static"/>
	</Control>
	<Globals>
		<Constants>
			<T>0</T>
			<R>0</R>
			<Fc>0</Fc>
		</Constants>
	</Globals>
	<Material>
		<material id="1" name="Material1" type="isotropic elastic">
			<density>1</density>
			<E>20000</E>
			<v>0.3</v>
		</material>
		<material id="2" name="Material3" type="neo-Hookean">
			<density>1</density>
			<E>2000</E>
			<v>0.2</v>
		</material>
	</Material>
	<Geometry>
		<Nodes name="Object01">
			<node id="1"> -1.0000000e+00, -1.0000000e+00, -1.0000000e+00</node>
			<node id="2"> -1.0000000e+00, -1.0000000e+00,  1.0000000e+00</node>
			<node id="3"> -1.0000000e+00, -1.0000000e+00,  3.0000000e+00</node>
			<node id="4"> -1.0000000e+00,  1.0000000e+00, -1.0000000e+00</node>
			<node id="5"> -1.0000000e+00,  1.0000000e+00,  1.0000000e+00</node>
			<node id="6"> -1.0000000e+00,  1.0000000e+00,  3.0000000e+00</node>
			<node id="7">  1.0000000e+00, -1.0000000e+00, -1.0000000e+00</node>
			<node id="8">  1.0000000e+00, -1.0000000e+00,  1.0000000e+00</node>
			<node id="9">  1.0000000e+00, -1.0000000e+00,  3.0000000e+00</node>
			<node id="10">  1.0000000e+00,  9.9867975e-01, -1.0000000e+00</node>
			<node id="11">  1.0000000e+00,  1.0000000e+00,  1.0000000e+00</node>
			<node id="12">  1.0000000e+00,  1.0000000e+00,  3.0000000e+00</node>
			<node id="13">  2.5130291e-01, -7.6223567e-01,  6.7571989e-01</node>
			<node id="14"> -7.9951748e-01,  2.6557558e-01,  1.2710102e+00</node>
			<node id="15"> -7.5491513e-01,  7.5074823e-01,  1.6266211e+00</node>
			<node id="16"> -8.6204265e-01, -8.5017649e-01, -5.9150147e-01</node>
			<node id="17"> -8.5095454e-01, -8.4991091e-01,  1.6468875e-01</node>
			<node id="18"> -8.3946235e-01, -8.0222297e-01,  4.3597679e-01</node>
			<node id="19"> -8.2475636e-01, -8.1177767e-01,  7.8564930e-01</node>
			<node id="20"> -8.4437758e-01, -8.2575518e-01,  1.1922680e+00</node>
<!-- ... 2299 like lines cut -->
		</Nodes>
		<Elements type="tet4" mat="1" name="Part1">
			<elem id="1">   769,   677,  1640,   268</elem>
			<elem id="2">  1327,   134,  1308,  1343</elem>
			<elem id="3">  1262,  1361,   278,  1261</elem>
			<elem id="4">   343,   761,   898,   209</elem>
			<elem id="5">    58,   408,   923,  1716</elem>
			<elem id="6">   712,   144,  1885,  1291</elem>
			<elem id="7">  1603,  1089,   508,   217</elem>
			<elem id="8">   434,   811,  1781,  2032</elem>
			<elem id="9">   434,  1936,  1781,  1635</elem>
			<elem id="10">   434,  1781,  1422,  2032</elem>
			<elem id="11">   132,   133,  1438,   436</elem>
			<elem id="12">   434,  1635,  1781,   811</elem>
			<elem id="13">   505,   348,  1367,   349</elem>
			<elem id="14">   738,   726,  1946,  1504</elem>
			<elem id="15">  1329,  1422,  1781,    76</elem>
			<elem id="16">   903,  1648,  1753,   147</elem>
			<elem id="17">  1434,   591,   141,  1602</elem>
			<elem id="18">  1608,   955,  2095,  1878</elem>
			<elem id="19">  1399,   961,   401,    36</elem>
			<elem id="20">   422,   807,   101,   330</elem>
<!-- ... 5050 like lines cut -->
		</Elements>
		<Elements type="tet4" mat="2" name="Part2">
			<elem id="5071">  1736,   415,   416,   995</elem>
			<elem id="5072">   421,   515,  1453,  1663</elem>
			<elem id="5073">  1030,  1508,    16,  1197</elem>
			<elem id="5074">  1575,  2051,   780,    60</elem>
			<elem id="5075">   261,   788,  1526,   163</elem>
			<elem id="5076">  1538,  1824,    42,   946</elem>
			<elem id="5077">  1002,  1578,  1783,  1921</elem>
			<elem id="5078">  1031,  1922,   874,  1785</elem>
			<elem id="5079">  1244,   350,  1782,  1633</elem>
			<elem id="5080">   720,  2051,  2139,  2176</elem>
			<elem id="5081">   810,  1782,  1633,  1244</elem>
			<elem id="5082">   228,    75,  1206,  1511</elem>
			<elem id="5083">   107,  1180,  2246,  1024</elem>
			<elem id="5084">  1355,  1857,  1589,  1699</elem>
			<elem id="5085">  1915,   448,  1785,  1033</elem>
			<elem id="5086">  1569,  1164,  1290,  1061</elem>
			<elem id="5087">  1287,  1295,  2194,   863</elem>
			<elem id="5088">  1812,  2026,  1802,   639</elem>
			<elem id="5089">  1208,    28,  1508,   856</elem>
			<elem id="5090">    77,   175,  1054,    63</elem>
<!-- ... 5600 like lines cut -->
		</Elements>
		<NodeSet name="FixedDisplacement1">
			<node id="1"/>
			<node id="4"/>
			<node id="7"/>
			<node id="10"/>
			<node id="73"/>
			<node id="169"/>
			<node id="456"/>
			<node id="457"/>
			<node id="458"/>
			<node id="484"/>
			<node id="504"/>
			<node id="713"/>
			<node id="718"/>
			<node id="719"/>
			<node id="804"/>
			<node id="805"/>
			<node id="864"/>
			<node id="869"/>
			<node id="912"/>
			<node id="916"/>
<!-- ... 97 like lines cut -->
		</NodeSet>
		<Surface name="SurfaceTraction1">
			<tri3 id="1">  1715,   419,  1483</tri3>
			<tri3 id="2">  2211,  1473,   212</tri3>
			<tri3 id="3">   767,  1684,  1484</tri3>
			<tri3 id="4">  1392,  2164,  1391</tri3>
			<tri3 id="5">  1759,  1954,  1482</tri3>
			<tri3 id="6">  1462,   459,  1621</tri3>
			<tri3 id="7">  1157,  2164,  1392</tri3>
			<tri3 id="8">  1157,  1385,  2164</tri3>
			<tri3 id="9">  1209,   871,  1378</tri3>
			<tri3 id="10">     6,   871,  1209</tri3>
			<tri3 id="11">  1275,   943,  1393</tri3>
			<tri3 id="12">  1393,   943,  1215</tri3>
			<tri3 id="13">  1072,  1383,   428</tri3>
			<tri3 id="14">  1406,  2113,  1471</tri3>
			<tri3 id="15">  1276,  1406,  1471</tri3>
			<tri3 id="16">  2224,  1162,  1386</tri3>
			<tri3 id="17">   976,  1396,  1400</tri3>
			<tri3 id="18">  1403,   872,  1588</tri3>
			<tri3 id="19">  1386,  1162,  1385</tri3>
			<tri3 id="20">  1392,  2273,   976</tri3>
<!-- ... 153 like lines cut -->
		</Surface>
	</Geometry>
	<Boundary>
		<fix bc="x,y,z" node_set="FixedDisplacement1"/>
	</Boundary>
	<Loads>
		<surface_load type="traction" surface="SurfaceTraction1">
			<scale lc="1">10</scale>
			<traction>0,0,0.1</traction>
		</surface_load>
	</Loads>
	<LoadData>
		<loadcurve id="1" type="smooth">
			<point>0,0</point>
			<point>1,1</point>
		</loadcurve>
	</LoadData>
	<Output>
		<plotfile type="febio">
			<var type="displacement"/>
			<var type="relative volume"/>
			<var type="stress"/>
		</plotfile>
	</Output>
</febio_spec>
